ID MSC  DSOUG1
TIME  10
SOL 101
CEND
TITLE = SYMMETRIC THREE BAR TRUSS DESIGN OPTIMIZATION  -       DSOUG1
SUBTITLE = BASELINE - 2 CROSS SECTIONAL AREAS AS DESIGN VARIABLES
ECHO        = NONE
SPC         = 100
DISPLACEMENT(SORT1,REAL)=ALL
SPCFORCES(SORT1,REAL)=ALL
STRESS(SORT1,REAL,VONMISES,BILIN)=ALL
$ Subcases
SUBCASE 1
   LABEL = LOAD CONDITION 1
   LOAD  = 300
SUBCASE 2
   LABEL = LOAD CONDITION 2
   LOAD  = 310
BEGIN BULK
$__1___||__2___||__3___||__4___||__5___||__6___||__7___||__8___||__9___||__10__|
param   post    1
GRID    1               -10.0     0.0   0.0
GRID    2                 0.0     0.0   0.0
GRID    3                10.0     0.0   0.0
GRID    4                 0.0   -10.0   0.0
SPC1    100     123456  1 THRU 3
CROD    1       11      1       4
CROD    2       12      2       4
CROD    3       13      3       4
PROD    11      1       1.0
PROD    12      1       2.0
PROD    13      1       1.0
MAT1    1       1.0E+7          0.33    0.1
FORCE   300     4               20000.   0.8    -0.6
FORCE   310     4               20000.  -0.8    -0.6  
ENDDATA